packages/andes/andes-1.1.4.tar.gz/andes-1.1.4/andes/cases/ieee14/ieee14.raw
0,   100.00,  32, 0, 1, 60.00     / PSS(R)E 32 RAW created by rawd32  SUN, MAY 17 2020  20:38
 IEEE 14 BUS TEST CASE
 03/06/14 CONTO           100.0  1962 W
     1,'BUS1        ',  69.0000,3,   1,   1,   1,1.03000,   0.0000
     2,'BUS2        ',  69.0000,2,   1,   1,   1,1.01970,  -1.6032
     3,'BUS3        ',  69.0000,2,   1,   1,   1,1.00042,  -3.4433
     4,'BUS4        ',  69.0000,1,   1,   1,   1,0.99858,  -4.2812
     5,'BUS5        ',  69.0000,1,   1,   1,   1,1.00443,  -3.6850
     6,'BUS6        ', 138.0000,2,   2,   2,   2,0.99871,  -6.3024
     7,'BUS7        ', 138.0000,1,   2,   2,   2,1.00682,  -4.8292
     8,'BUS8        ',  69.0000,2,   2,   2,   2,1.01895,  -1.3945
     9,'BUS9        ', 138.0000,1,   2,   2,   2,1.00193,  -7.3053
    10,'BUS10       ', 138.0000,1,   2,   2,   2,0.99351,  -7.4600
    11,'BUS11       ', 138.0000,1,   2,   2,   2,0.99245,  -7.0444
    12,'BUS12       ', 138.0000,1,   2,   2,   2,0.98639,  -7.3874
    13,'BUS13       ', 138.0000,1,   2,   2,   2,0.98403,  -7.6654
    14,'BUS14       ', 138.0000,1,   2,   2,   2,0.99063,  -9.5636
 0 /End of Bus data, Begin Load data
     2,'1 ',1,   1,   1,    21.700,    12.700,     0.000,     0.000,     0.000,     0.000,   1,1
     3,'1 ',1,   1,   1,    50.000,    25.000,     0.000,     0.000,     0.000,     0.000,   1,1
     4,'1 ',1,   1,   1,    47.800,    10.000,     0.000,     0.000,     0.000,     0.000,   1,1
     5,'1 ',1,   1,   1,     7.600,     1.600,     0.000,     0.000,     0.000,     0.000,   1,1
     6,'1 ',1,   2,   2,    15.000,     7.500,     0.000,     0.000,     0.000,     0.000,   2,1
     9,'1 ',1,   2,   2,    29.500,    16.600,     0.000,     0.000,     0.000,     0.000,   2,1
    10,'1 ',1,   2,   2,     9.000,     5.800,     0.000,     0.000,     0.000,     0.000,   2,1
    11,'1 ',1,   2,   2,     3.500,     1.800,     0.000,     0.000,     0.000,     0.000,   2,1
    12,'1 ',1,   2,   2,     6.100,     1.600,     0.000,     0.000,     0.000,     0.000,   2,1
    13,'1 ',1,   2,   2,    13.500,     5.800,     0.000,     0.000,     0.000,     0.000,   2,1
    14,'1 ',1,   2,   2,    20.000,     7.000,     0.000,     0.000,     0.000,     0.000,   2,1
 0 /End of Load data, Begin Fixed shunt data
 0 /End of Fixed shunt data, Begin Generator data
     1,'1 ',    81.442,     1.962,   100.000,   -50.000,1.03000,     0,   100.000, 0.00000E+0, 2.30000E-1, 0.00000E+0, 0.00000E+0,1.00000,1,  100.0,   200.000,    50.000,   1,1.0000
     2,'1 ',    40.000,    15.000,    15.000,   -40.000,1.03000,     0,   100.000, 0.00000E+0, 1.30000E-1, 0.00000E+0, 0.00000E+0,1.00000,1,  100.0,    50.000,    10.000,   1,1.0000
     3,'1 ',    40.000,    15.000,    15.000,   -10.000,1.01000,     0,   100.000, 0.00000E+0, 1.30000E-1, 0.00000E+0, 0.00000E+0,1.00000,1,  100.0,    50.000,    10.000,   1,1.0000
     6,'1 ',    30.000,    10.000,    10.000,    -6.000,1.03000,     0,   100.000, 0.00000E+0, 1.20000E-1, 0.00000E+0, 0.00000E+0,1.00000,1,  100.0,    50.000,    10.000,   1,1.0000
     8,'1 ',    35.000,    10.000,    10.000,    -6.000,1.03000,     0,   100.000, 0.00000E+0, 1.20000E-1, 0.00000E+0, 0.00000E+0,1.00000,1,  100.0,    50.000,    10.000,   1,1.0000
 0 /End of Generator data, Begin Branch data
     1,      2,'1 ', 1.93800E-2, 5.91700E-2,   0.05280,  100.00,  100.00,    0.00,  0.00000,  0.00000,  0.00000,  0.00000,1,1,   0.00,   1,1.0000
     1,      5,'1 ', 5.40300E-2, 2.23040E-1,   0.04920,  100.00,  100.00,    0.00,  0.00000,  0.00000,  0.00000,  0.00000,1,1,   0.00,   1,1.0000
     2,      3,'1 ', 4.69900E-2, 1.97970E-1,   0.04380,  100.00,  100.00,    0.00,  0.00000,  0.00000,  0.00000,  0.00000,1,1,   0.00,   1,1.0000
     2,      4,'1 ', 5.81100E-2, 1.76320E-1,   0.03400,  100.00,  100.00,    0.00,  0.00000,  0.00000,  0.00000,  0.00000,1,1,   0.00,   1,1.0000
     2,      5,'1 ', 5.69500E-2, 1.73880E-1,   0.03460,  100.00,  100.00,    0.00,  0.00000,  0.00000,  0.00000,  0.00000,1,1,   0.00,   1,1.0000
     3,      4,'1 ', 6.70100E-2, 1.71030E-1,   0.01280,  100.00,  100.00,    0.00,  0.00000,  0.00000,  0.00000,  0.00000,1,1,   0.00,   1,1.0000
     4,      5,'1 ', 1.33500E-2, 4.21100E-2,   0.00000,  100.00,  100.00,    0.00,  0.00000,  0.00000,  0.00000,  0.00000,1,1,   0.00,   1,1.0000
     6,     11,'1 ', 9.49800E-2, 1.98900E-1,   0.00000,  100.00,  100.00,    0.00,  0.00000,  0.00000,  0.00000,  0.00000,1,1,   0.00,   1,1.0000
     6,     12,'1 ', 1.22910E-1, 2.55810E-1,   0.00000,  100.00,  100.00,    0.00,  0.00000,  0.00000,  0.00000,  0.00000,1,1,   0.00,   1,1.0000
     6,     13,'1 ', 6.61500E-2, 1.30270E-1,   0.00000,  100.00,  100.00,    0.00,  0.00000,  0.00000,  0.00000,  0.00000,1,1,   0.00,   1,1.0000
     7,      9,'1 ',-0.00000E+0, 1.10010E-1,   0.00000,  100.00,  100.00,    0.00,  0.00000,  0.00000,  0.00000,  0.00000,1,1,   0.00,   1,1.0000
     9,     10,'1 ', 3.18100E-2, 8.45000E-2,   0.00000,  100.00,  100.00,    0.00,  0.00000,  0.00000,  0.00000,  0.00000,1,1,   0.00,   1,1.0000
     9,     14,'1 ', 1.27110E-1, 2.70380E-1,   0.00000,  100.00,  100.00,    0.00,  0.00000,  0.00000,  0.00000,  0.00000,1,1,   0.00,   1,1.0000
    10,     11,'1 ', 8.20500E-2, 1.92070E-1,   0.00000,  100.00,  100.00,    0.00,  0.00000,  0.00000,  0.00000,  0.00000,1,1,   0.00,   1,1.0000
    12,     13,'1 ', 2.20920E-1, 1.99880E-1,   0.00000,  100.00,  100.00,    0.00,  0.00000,  0.00000,  0.00000,  0.00000,1,1,   0.00,   1,1.0000
    13,     14,'1 ', 1.70930E-1, 3.48020E-1,   0.00000,  100.00,  100.00,    0.00,  0.00000,  0.00000,  0.00000,  0.00000,1,1,   0.00,   1,1.0000
 0 /End of Branch data, Begin Transformer data
     4,     7,     0,'1 ',1,1,1, 0.00000E+0, 0.00000E+0,2,'                                        ',1,   1,1.0000
 0.00000E+0, 2.09120E-1,   100.00
0.99677,   0.000,   0.000,    20.00,    20.00,     0.00,-1,      0, 1.10000, 0.90000, 1.10000, 0.90000,  32, 0, 0.00000, 0.00000,  0.000
1.00000,   0.000
     4,     9,     0,'1 ',1,1,1, 0.00000E+0, 0.00000E+0,2,'                                        ',1,   1,1.0000
 0.00000E+0, 5.56180E-1,   100.00
0.99677,   0.000,   0.000,    20.00,    20.00,     0.00,-1,      0, 1.10000, 0.90000, 1.10000, 0.90000,  32, 0, 0.00000, 0.00000,  0.000
1.00000,   0.000
     6,     5,     0,'1 ',1,1,1, 0.00000E+0, 0.00000E+0,1,'                                        ',1,   1,1.0000
 0.00000E+0, 2.52020E-1,   100.00
0.99677,   0.000,   0.000,    50.00,    50.00,     0.00,-1,      0, 1.10000, 0.90000, 1.10000, 0.90000,  32, 0, 0.00000, 0.00000,  0.000
1.00000,   0.000
     8,     7,     0,'1 ',1,1,1, 0.00000E+0, 0.00000E+0,1,'                                        ',1,   1,1.0000
 0.00000E+0, 1.76150E-1,   100.00
0.99677,   0.000,   0.000,    50.00,    50.00,     0.00,-1,      0, 1.10000, 0.90000, 1.10000, 0.90000,  32, 0, 0.00000, 0.00000,  0.000
1.00000,   0.000
 0 /End of Transformer data, Begin Area interchange data
   1,     2,     0.000,   999.990,'AREA1       '
   2,     0,     0.000,    10.000,'AREA2       '
 0 /End of Area interchange data, Begin Two-terminal dc line data
 0 /End of Two-terminal dc line data, Begin VSC dc line data
 0 /End of VSC dc line data, Begin Impedance correction table data
 0 /End of Impedance correction table data, Begin Multi-terminal dc line data
 0 /End of Multi-terminal dc line data, Begin Multi-section line data
 0 /End of Multi-section line data, Begin Zone data
   1,'ZONE1       '
   2,'ZONE2       '
 0 /End of Zone data, Begin Inter-area transfer data
 0 /End of Inter-area transfer data, Begin Owner data
   1,'OWNER1      '
   2,'OWNER2      '
 0 /End of Owner data, Begin FACTS device data
 0 /End of FACTS device data, Begin Switched shunt data
     9,1,0,1,1.02500,0.96000,     0,  100.0,'            ',   19.00, 3,   5.00, 1,   4.00
    14,1,0,1,1.02500,0.96000,     0,  100.0,'            ',   15.00, 3,   5.00
 0 /End of Switched shunt data, Begin GNE device data
 0 /End of GNE device data
Q
